AICC
AICc
AO
AirPassengers
Alain
Arima
BLS
Bannert
Beamish
CMD
Dhanda
Diagnostical
ESC
Galli
IIP
Indergand
JDemetra
Kalambaden
Leist
Livsey
Ljung
MacBook
Monsell
Mukherjee
PCY
Parnisari
Pavia
Pinaki
Preetha
Programme
QS
README
RStudio
Signif
Sys
TRAMO
Testairline
UNC
Vidur
Xβ
acf
acfsquared
acm
adjcompositesrs
adjoriginal
adjoriginalc
adjoriginald
adjustdiff
adjustfac
adjustmentratio
afd
aictest
ais
ao
aoutlier
arg
arima
arimamodel
armacmatrix
ars
autocorr
automdl
backcasts
bcc
bcf
bct
biasfactor
btr
bxc
bxh
cac
calendaradjchanges
calendaradjcomposite
calendaradjorig
calendarb
cbind
che
checkX
chl
chngestimates
chngrevisions
chngspans
chr
chs
cis
cms
cny
coef
combcalendar
combcalendarb
combholiday
combtradingday
combtradingdayb
componentmodels
compositesrs
customizable
customizations
cyc
dat
denton
diagnostical
diffseasonaladj
difftrend
dir
diwali
doi
dsa
dta
dtr
easter
env
extensibility
extremeb
extremeval
extremevalb
fac
faf
fce
fch
fcsterrors
fcsthistory
fct
fdeaths
ffc
filtersaconc
filtersasym
filtertrendconc
filtertrendsym
finaltests
forcefactor
ftc
ftf
ftr
fts
fvr
gac
gaf
genhol
ggseas
gtc
gtf
gunsales
hol
holidayb
ia
iaa
iac
iae
iaf
iao
iar
ica
ie
iee
iip
iir
ils
indadjsatot
indadjustfac
indaoutlier
indcalendar
indchngspans
indirregular
indlevelshift
indmcdmovavg
indmodirr
indmodoriginal
indmodsadj
indreplacsi
indrevsachanges
indrndsachanges
indrobustsa
indsachanges
indsadjround
indsaestimates
indsarevisions
indsaspans
indseasadj
indseasonal
indseasonaldiff
indsfspans
indtotaladjustment
indtrend
indtrendchanges
indunmodsi
indychngspans
ipc
ira
irn
irregularadjao
irregularb
irregularc
irrwt
irrwtb
isa
isd
isf
ita
itn
itr
jan
jss
lapply
levelshift
lkh
lkhdhistory
lks
lm
logLik
logadd
longtermtrend
lshift
ltt
macOS
mcdmovavg
mclapply
md
mdc
mdeaths
mdl
millenium
mio
modirregular
modoriginal
modseasadj
modsic
modsid
monthplot
monthwise
msg
mult
mv
na
newdata
nonrobust
oac
oct
ofd
oit
origchanges
otl
outlieradjcomposite
outlieradjorig
outlierhistory
outlieriter
pacf
parallelization
parlApply
pcf
periodwise
permprior
permprioradjusted
permprioradjustedptd
pickmdl
pre
prebuilt
prioradjcomposite
prioradjusted
prioradjustedptd
priortd
programmatically
qqnorm
qs
quarterwise
rcm
regARIMA
regb
regcmatrix
regressioneffects
regressionmatrix
regseasonal
replacsi
replacsic
requries
resid
residplot
revsachanges
rmx
rnd
rndsachanges
robustsa
rsd
rts
saa
sachanges
sae
saestimates
sapply
sar
sarevisions
saround
savely
seaonalview
seasadj
seasadjb
seasadjc
seasadjconst
seasadjd
seasadjtot
seasonaladj
seasonaladjfcstdecomp
seasonaladjregsea
seasonalb
seasonalc
seasonald
seasonalfcstdecomp
seasonaloutlier
seasonalsum
seasonalview
seatsmdlhistory
seriesconstant
seriesfcstdecomp
seriesmvadj
setenv
sfd
sfe
sfestimates
sfh
sfilterhistory
sfr
sfrevisions
sfs
sfspans
shiped
si
signif
slidingspans
smh
sp
spc
speccomposite
specifed
specindirr
specindsa
specirr
specorig
specresidual
specsa
specseatsirr
specseatssa
spr
squaredgainsaconc
squaredgainsasym
squaredgaintrendconc
squaredgaintrendsym
ssm
sta
stc
stl
stlplus
stringr
tac
tal
tc
tce
tcr
td
tdadjorig
tdadjorigb
tds
tdspans
temporarychange
tempprior
tfd
timeshiftsaconc
timeshifttrendconc
tomonth
totaladjustment
tradingday
tradingdayb
transfom
transfomation
transformedbcst
transitoryfcstdecomp
travis
tre
trendadjls
trendb
trendc
trendchanges
trendchngestimates
trendchngrevisions
trendconst
trendd
trendestimates
trendfcstdecomp
trendrevisions
trn
trr
tsbox
ttc
udg
unadjusted
unemp
unmodsi
unmodsiox
unparsed
unselect
userdef
userdefined
usertype
usr
ussales
wkendfilter
wkf
www
xca
xcc
xhl
xoi
xrc
xreg
xregressioncmatrix
xregressionmatrix
xrm
xtrans
ychngspans
ycs
yfd
yis
yrtotals
