AICC
AICc
AO
AirPassengers
Alain
Arima
BLS
Bannert
Beamish
CMD
Dhanda
Diagnostical
ESC
Galli
IIP
Indergand
JDemetra
Kalambaden
Leist
Livsey
Ljung
MacBook
Monsell
Mukherjee
PCY
Parnisari
Pavia
Pinaki
Preetha
Programme
QS
README
RStudio
Signif
Sys
TRAMO
Testairline
UNC
Vidur
Xb
acf
acfsquared
acm
adjcompositesrs
adjoriginal
adjoriginalc
adjoriginald
adjustdiff
adjustfac
adjustfacpct
adjustmentratio
afd
aictest
ais
amh
ao
aoutlier
arg
arima
arimamodel
armacmatrix
armahistory
ars
ase
autocorr
automdl
backcasts
bcc
bcf
bct
biasfactor
btr
bxc
bxh
cac
calendaradjchanges
calendaradjchangespct
calendaradjcomposite
calendaradjorig
calendarb
cbind
che
checkX
chl
chngestimates
chngrevisions
chngspans
chr
chs
cis
cms
cny
coef
combcalendar
combcalendarb
combholiday
combtradingday
combtradingdayb
componentmodels
compositesrs
cse
customizable
customizations
cyc
dat
denton
diagnostical
difforiginal
diffseasonaladj
difftrend
dir
diwali
doi
dor
dsa
dta
dtr
easter
env
extensibility
extremeb
extremeval
extremevalb
fac
faf
fce
fch
fcsterrors
fcsthistory
fct
fdeaths
ffc
filtersaconc
filtersasym
filtertrendconc
filtertrendsym
finaltests
forcefactor
fsd
ftc
ftf
ftr
fts
fvr
gac
gaf
genhol
ggseas
gtc
gtf
gunsales
hol
holidayb
ia
iaa
iac
iae
iaf
iao
iar
ica
ie
iee
iip
iir
ils
indadjsatot
indadjustfac
indaoutlier
indcalendar
indchngspans
indirregular
indlevelshift
indmcdmovavg
indmodirr
indmodoriginal
indmodsadj
indreplacsi
indrevsachanges
indrndsachanges
indrobustsa
indsachanges
indsadjround
indsaestimates
indsarevisions
indsaspans
indseasadj
indseasonal
indseasonaldiff
indsfspans
indtotaladjustment
indtrend
indtrendchanges
indunmodsi
indychngspans
ipc
ira
irn
irregularadjao
irregularb
irregularc
irregularoutlieradj
irregularpct
irrwt
irrwtb
isa
isd
isf
ita
itn
itr
jan
jss
lapply
levelshift
lkh
lkhdhistory
lks
lm
logLik
logadd
longtermtrend
lshift
ltt
mcdmovavg
mclapply
md
mdc
mdeaths
mdl
millenium
mio
modirregular
modoriginal
modseasadj
modsic
modsid
monthplot
monthwise
msg
mult
mv
na
newdata
nonrobust
oac
oct
ofd
oit
origchanges
origchangespct
otl
outlieradjcomposite
outlieradjorig
outlierhistory
outlieriter
pacf
paf
parallelization
parlApply
pcf
pe
periodwise
permprior
permprioradjusted
permprioradjustedptd
pia
pickmdl
pir
pre
prebuilt
prioradjcomposite
prioradjusted
prioradjustedptd
priortd
programmatically
psa
psc
pseudoinnovsadj
pseudoinnovseasonal
pseudoinnovtransitory
pseudoinnovtrend
psf
pss
qqnorm
qs
quarterwise
rcm
regARIMA
regb
regcmatrix
regressioneffects
regressionmatrix
regseasonal
replacsi
replacsic
requries
resid
residplot
revsachanges
revsachangespct
rmx
rnd
rndsachanges
rndsachangespct
robustsa
rsd
rts
saa
sachanges
sachangespct
sae
saestimates
sapply
sar
sarevisions
saround
savely
se
seaonalview
seasadj
seasadjb
seasadjc
seasadjconst
seasadjd
seasadjtot
seasonaladj
seasonaladjfcstdecomp
seasonaladjoutlieradj
seasonaladjregsea
seasonaladjse
seasonalb
seasonalc
seasonald
seasonaldiff
seasonalfcstdecomp
seasonaloutlier
seasonalpct
seasonalse
seasonalsum
seasonalview
seatsmdlhistory
ser
seriesconstant
seriesfcstdecomp
seriesmvadj
setenv
sfd
sfe
sfestimates
sfh
sfilterhistory
sfr
sfrevisions
sfs
sfspans
shiped
si
signif
slidingspans
smh
sp
spc
speccomposite
specextresiduals
specifed
specindirr
specindsa
specirr
specorig
specresidual
specsa
specseatsirr
specseatssa
spectukeycomposite
spectukeyextresiduals
spectukeyindirr
spectukeyindsa
spectukeyirr
spectukeyorig
spectukeyresidual
spectukeysa
spectukeyseatsirr
spectukeyseatssa
spr
squaredgainsaconc
squaredgainsasym
squaredgaintrendconc
squaredgaintrendsym
sse
ssm
sta
stc
steasonal
stl
stlplus
str
stringr
tac
tal
tc
tce
tcr
td
tdadjorig
tdadjorigb
tdh
tdhistory
tds
tdspans
temporarychange
tempprior
ter
tfd
timeshiftsaconc
timeshifttrendconc
tomonth
totaladjustment
tradingday
tradingdayb
transfom
transfomation
transformedbcst
transitoryfcstdecomp
transitorypct
transitoryse
travis
tre
trendadjls
trendb
trendc
trendchanges
trendchangespct
trendchngestimates
trendchngrevisions
trendconst
trendd
trendestimates
trendfcstdecomp
trendrevisions
trendse
trn
trr
tsbox
tse
ttc
udg
unadjusted
unemp
unmodsi
unmodsiox
unparsed
unselect
userdef
userdefined
usertype
usr
ussales
wkendfilter
wkf
www
xca
xcc
xhl
xoi
xrc
xreg
xregressioncmatrix
xregressionmatrix
xrm
xtrans
ychngspans
ycs
yfd
yis
yrtotals
