AICc
AirPassengers
Alain
BLS
Bannert
Beamish
CMD
Dhanda
Diagnostical
ESC
Galli
GitHub
IIP
Indergand
JDemetra
Kalambaden
Leist
Livsey
Ljung
MacBook
Monsell
Mukherjee
Parnisari
Pinaki
Preetha
Programme
QS
RStudio
Signif
Sys
TRAMO
Testairline
Vidur
acf
acfsquared
acm
adjoriginal
adjoriginalc
adjoriginald
adjustdiff
adjustfac
adjustmentratio
afd
aictest
ais
ao
aoutlier
arima
armacmatrix
ars
asy
autocorr
automdl
backcasts
bcc
bcf
bct
biasfactor
btr
bxc
bxh
calendaradjchanges
calendaradjorig
calendarb
cbind
che
chl
chngestimates
chngrevisions
chngspans
chr
chs
cis
cny
coef
combcalendar
combcalendarb
combholiday
combtradingday
combtradingdayb
customizations
cyc
dat
diagnostical
diffseasonaladj
difftrend
diwali
doi
dsa
dta
dtr
easter
extensibility
extremeb
extremeval
extremevalb
fce
fch
fcsterrors
fcsthistory
fct
fdeaths
ffc
finaltests
forcefactor
fsd
ftr
fts
fvr
genhol
ggseas
gunsales
hol
holidayb
iac
iae
iao
iar
iip
indchngspans
indsaestimates
indsarevisions
indsaspans
indsfspans
indychngspans
ipc
irregularadjao
irregularb
irregularc
irrwt
irrwtb
itr
jan
jss
lapply
levelshift
lkh
lkhdhistory
lm
logLik
longtermtrend
lshift
ltt
macOS
mcdmovavg
mdeaths
mio
modirregular
modoriginal
modseasadj
modsic
modsid
monthplot
monthwise
mv
newdata
oct
ofd
oit
origchanges
otl
outlieradjorig
outlierhistory
outlieriter
pacf
parallelization
pcf
periodwise
permprior
permprioradjusted
permprioradjustedptd
pickmdl
pre
prebuilt
prioradjusted
prioradjustedptd
priortd
programmatically
qqnorm
quarterwise
rcm
regARIMA
regb
regcmatrix
regressioneffects
regressionmatrix
regseasonal
replacsi
replacsic
requries
resid
revsachanges
rmx
rnd
rndsachanges
robustsa
rsd
rts
saa
sachanges
sae
saestimates
sapply
sar
sarevisions
saround
savely
seasadj
seasadjb
seasadjc
seasadjconst
seasadjd
seasadjtot
seasonaladj
seasonaladjfcstdecomp
seasonaladjregsea
seasonalb
seasonalc
seasonald
seasonaldi
seasonalfcstdecomp
seasonaloutlier
seasonalsum
seasonalview
seatsmdlhistory
ser
seriesconstant
seriesfcstdecomp
seriesmvadj
setenv
sfd
sfe
sfestimates
sfh
sfilterhistory
sfr
sfrevisions
sfs
sfspans
shiped
signif
slidingspans
smh
sp
spc
speccomposite
specifed
specindirr
specindsa
specirr
specorig
specresidual
specsa
specseatsextresiduals
specseatsirr
specseatssa
spr
ssm
sta
stc
stl
stlplus
tac
tal
tc
tce
tcr
td
tdadjorig
tdadjorigb
tds
tdspans
temporarychange
tempprior
tfd
totaladjustment
tradingday
tradingdayb
transfomation
transformedbcst
transitoryfcstdecomp
tre
trendadjls
trendb
trendc
trendchanges
trendchngestimates
trendchngrevisions
trendconst
trendd
trendestimates
trendfcstdecomp
trendrevisions
trn
trr
tsbox
udg
unadjusted
unemp
univeral
unmodsi
unmodsiox
unparsed
unselect
userdef
usertype
usr
ussales
xca
xcc
xhl
xoi
xrc
xreg
xregressioncmatrix
xregressionmatrix
xrm
xtrans
ychngspans
ycs
yfd
yis
yrtotals
